Version 4.1
SHEET 1 880 680
WIRE 176 -112 128 -112
WIRE 416 -112 256 -112
WIRE 128 -32 128 -112
WIRE 240 -32 128 -32
WIRE 416 -32 416 -112
WIRE 416 -32 304 -32
WIRE 128 128 128 -32
WIRE 128 128 64 128
WIRE 240 128 128 128
WIRE 416 160 416 -32
WIRE 416 160 352 160
WIRE 240 192 176 192
WIRE 176 256 176 192
FLAG 176 256 0
FLAG -464 192 0
FLAG -384 192 0
FLAG -304 192 0
FLAG -464 112 +V
FLAG 304 224 +V
FLAG -384 112 -V
FLAG 304 96 -V
FLAG -304 112 vin
FLAG -16 128 vin
SYMBOL LM\ 741\\LM741 288 144 M180
SYMATTR InstName U1
SYMBOL res 80 112 R90
WINDOW 0 0 56 VBottom 2
WINDOW 3 32 56 VTop 2
SYMATTR InstName R1
SYMATTR Value 1k
SYMBOL voltage -464 96 R0
WINDOW 123 0 0 Left 0
WINDOW 39 0 0 Left 0
SYMATTR InstName V1
SYMATTR Value 15
SYMBOL voltage -384 96 R0
WINDOW 123 0 0 Left 0
WINDOW 39 0 0 Left 0
SYMATTR InstName V2
SYMATTR Value -15
SYMBOL voltage -304 96 R0
WINDOW 123 0 0 Left 0
WINDOW 39 0 0 Left 0
SYMATTR InstName V3
SYMATTR Value PULSE(0 1 0 1m 0 0 2m)
SYMBOL res 272 -128 R90
WINDOW 0 0 56 VBottom 2
WINDOW 3 32 56 VTop 2
SYMATTR InstName R2
SYMATTR Value 10k
SYMBOL cap 304 -48 R90
WINDOW 0 0 32 VBottom 2
WINDOW 3 32 32 VTop 2
SYMATTR InstName C1
SYMATTR Value 1µ
TEXT -496 288 Left 2 !.tran 10m
