Version 4.1
SHEET 1 880 680
WIRE 256 0 -208 0
WIRE -208 64 -208 0
WIRE 256 96 256 0
WIRE 192 128 48 128
WIRE -208 160 -208 144
WIRE -208 160 -336 160
WIRE 48 160 48 128
WIRE 368 160 304 160
WIRE -208 176 -208 160
WIRE -336 192 -336 160
WIRE 192 192 160 192
WIRE 368 224 368 160
WIRE 160 336 160 192
WIRE 368 336 368 304
WIRE 368 336 160 336
WIRE 368 368 368 336
WIRE -208 400 -208 256
WIRE 256 400 256 224
WIRE 256 400 -208 400
FLAG 368 448 0
FLAG 48 240 0
FLAG -336 192 0
SYMBOL res 352 208 R0
SYMATTR InstName R1
SYMATTR Value 30k
SYMBOL res 352 352 R0
SYMATTR InstName R2
SYMATTR Value 10k
SYMBOL voltage 48 144 R0
WINDOW 123 0 0 Left 0
WINDOW 39 0 0 Left 0
SYMATTR InstName V1
SYMATTR Value SINE(0 5 2)
SYMBOL voltage -208 48 R0
WINDOW 123 0 0 Left 0
WINDOW 39 0 0 Left 0
SYMATTR InstName V2
SYMATTR Value 15
SYMBOL voltage -208 160 R0
WINDOW 123 0 0 Left 0
WINDOW 39 0 0 Left 0
SYMATTR InstName V3
SYMATTR Value 15
SYMBOL LM\ 741\\LM741 240 176 R0
SYMATTR InstName U2
TEXT -352 472 Left 2 !.tran 10
