Version 4.1
SHEET 1 880 680
WIRE 528 -416 272 -416
WIRE 272 -352 272 -416
WIRE 272 -240 272 -272
WIRE 352 -240 272 -240
WIRE 432 -240 416 -240
WIRE 272 -224 272 -240
WIRE 528 -208 528 -416
WIRE -1552 -176 -1568 -176
WIRE -1456 -176 -1472 -176
WIRE -1184 -176 -1376 -176
WIRE -1136 -176 -1152 -176
WIRE -1024 -176 -1072 -176
WIRE -928 -176 -1024 -176
WIRE -800 -176 -864 -176
WIRE -656 -176 -720 -176
WIRE -560 -176 -656 -176
WIRE -112 -160 -192 -160
WIRE 80 -160 -48 -160
WIRE 224 -160 80 -160
WIRE 352 -128 272 -128
WIRE 432 -128 432 -240
WIRE -1568 -112 -1568 -176
WIRE -1184 -112 -1184 -176
WIRE -1024 -112 -1024 -176
WIRE -1024 -112 -1184 -112
WIRE -656 -112 -656 -176
WIRE -192 -112 -192 -160
WIRE 80 -112 80 -160
WIRE 272 -112 272 -128
WIRE -1456 -96 -1456 -176
WIRE -1376 -96 -1376 -176
WIRE -800 -96 -800 -176
WIRE -560 -96 -560 -176
WIRE 352 -96 352 -128
WIRE -1152 -80 -1152 -176
WIRE -1104 -80 -1152 -80
WIRE -1024 -48 -1184 -48
WIRE -192 0 -192 -32
WIRE 80 0 80 -32
WIRE 80 0 -192 0
WIRE 224 0 80 0
WIRE 272 0 272 -32
WIRE 272 0 224 0
WIRE 352 0 352 -32
WIRE 352 0 272 0
WIRE 432 0 432 -48
WIRE 432 0 352 0
WIRE 528 0 528 -128
WIRE 528 0 432 0
WIRE -1568 16 -1568 -32
WIRE -1488 16 -1568 16
WIRE -1456 16 -1456 -16
WIRE -1456 16 -1488 16
WIRE -1376 16 -1376 -16
WIRE -1184 16 -1184 -48
WIRE -1184 16 -1376 16
WIRE -1152 16 -1152 -80
WIRE -1024 16 -1024 -48
WIRE -1024 16 -1088 16
WIRE -928 16 -1024 16
WIRE -864 16 -864 -176
WIRE -800 16 -800 -32
WIRE -656 16 -656 -48
WIRE -560 16 -560 -16
FLAG 224 0 0
FLAG -192 -160 Vin
IOPIN -192 -160 In
FLAG 432 -240 Vout
IOPIN 432 -240 Out
FLAG -1488 16 0
FLAG -1104 -80 0
FLAG -560 16 0
FLAG -800 16 0
FLAG -656 16 0
SYMBOL njf 224 -224 R0
SYMATTR InstName J1
SYMATTR Value J113
SYMBOL res 256 -368 R0
SYMATTR InstName RD
SYMATTR Value 0.8588k
SYMBOL voltage 528 -224 R0
WINDOW 123 0 0 Left 0
WINDOW 39 0 0 Left 0
SYMATTR InstName V1
SYMATTR Value 9v
SYMBOL voltage -192 -128 R0
WINDOW 123 0 0 Left 0
WINDOW 39 0 0 Left 0
SYMATTR InstName V2
SYMATTR Value SINE(0 10m 1k)
SYMBOL cap -48 -176 R90
WINDOW 0 0 32 VBottom 2
WINDOW 3 32 32 VTop 2
SYMATTR InstName C1
SYMATTR Value 2.2µ
SYMBOL cap 416 -256 R90
WINDOW 0 0 32 VBottom 2
WINDOW 3 32 32 VTop 2
SYMATTR InstName C2
SYMATTR Value 2.2µ
SYMBOL res 416 -144 R0
SYMATTR InstName R2
SYMATTR Value 10k
SYMBOL res 256 -128 R0
WINDOW 3 -66 67 Left 2
SYMATTR Value 0.1285k
SYMATTR InstName RS
SYMBOL res 64 -128 R0
SYMATTR InstName RG
SYMATTR Value 100k
SYMBOL cap 336 -96 R0
SYMATTR InstName C3
SYMATTR Value 47µ
SYMBOL ind -1472 -112 R0
WINDOW 0 -22 23 Left 2
WINDOW 3 -19 79 Left 2
SYMATTR InstName L1
SYMATTR Value 733.5m
SYMBOL ind -1360 0 R180
WINDOW 0 -20 84 Left 2
WINDOW 3 -10 31 Left 2
SYMATTR InstName L2
SYMATTR Value 1m
SYMBOL voltage -1568 -128 R0
WINDOW 3 -217 99 Left 2
WINDOW 123 0 0 Left 0
WINDOW 39 0 0 Left 0
SYMATTR Value SINE(0 325.27 50)
SYMATTR InstName V3
SYMBOL res -1456 -192 R90
WINDOW 0 0 56 VBottom 2
WINDOW 3 32 56 VTop 2
SYMATTR InstName R1
SYMATTR Value 0.1m
SYMBOL diode -1136 -160 R270
WINDOW 0 32 32 VTop 2
WINDOW 3 0 32 VBottom 2
SYMATTR InstName D1
SYMATTR Value 1N4148
SYMBOL diode -928 -160 R270
WINDOW 0 32 32 VTop 2
WINDOW 3 0 32 VBottom 2
SYMATTR InstName D2
SYMATTR Value 1N4148
SYMBOL diode -1152 32 R270
WINDOW 0 32 32 VTop 2
WINDOW 3 0 32 VBottom 2
SYMATTR InstName D3
SYMATTR Value 1N4148
SYMBOL diode -928 32 R270
WINDOW 0 32 32 VTop 2
WINDOW 3 0 32 VBottom 2
SYMATTR InstName D4
SYMATTR Value 1N4148
SYMBOL res -576 -112 R0
SYMATTR InstName R3
SYMATTR Value 5k
SYMBOL cap -816 -96 R0
SYMATTR InstName C4
SYMATTR Value 100µ
SYMBOL res -704 -192 R90
WINDOW 0 0 56 VBottom 2
WINDOW 3 32 56 VTop 2
SYMATTR InstName R4
SYMATTR Value 470
SYMBOL zener -640 -48 R180
WINDOW 0 24 64 Left 2
WINDOW 3 -40 0 Left 2
SYMATTR InstName D5
SYMATTR Value EDZV9_1B
TEXT -224 24 Left 2 !.tran 10m
TEXT -224 56 Left 2 !.meas VO PP V(Vout)
TEXT -224 80 Left 2 !.meas VI PP V(Vin)
TEXT -224 104 Left 2 !.meas V_Gain param -VO/VI
TEXT -224 144 Left 2 !.meas IO PP I(R2)
TEXT -224 168 Left 2 !.meas II PP I(RG)
TEXT -224 192 Left 2 !.meas I_Gain param IO/II
TEXT -1472 -120 Left 2 !K L1 L2 1
