Version 4.1
SHEET 1 880 680
WIRE 224 -144 -208 -144
WIRE -208 -16 -208 -144
WIRE 128 16 -16 16
WIRE -16 80 -16 16
WIRE 224 80 224 -144
WIRE 128 112 128 16
WIRE 160 112 128 112
WIRE -208 128 -208 64
WIRE -208 128 -288 128
WIRE -288 144 -288 128
WIRE 416 144 272 144
WIRE 160 176 64 176
WIRE -208 192 -208 128
WIRE 64 208 64 176
WIRE -208 400 -208 272
WIRE 224 400 224 208
WIRE 224 400 -208 400
FLAG -288 144 0
FLAG 64 208 0
FLAG -16 160 0
SYMBOL LM\ 741\\LM741 208 160 R0
WINDOW 3 69 4 Top 2
SYMATTR InstName U1
SYMBOL voltage -208 -32 R0
WINDOW 123 0 0 Left 0
WINDOW 39 0 0 Left 0
SYMATTR InstName V1
SYMATTR Value 15
SYMBOL voltage -208 176 R0
WINDOW 123 0 0 Left 0
WINDOW 39 0 0 Left 0
SYMATTR InstName V2
SYMATTR Value 15
SYMBOL voltage -16 64 R0
WINDOW 123 0 0 Left 0
WINDOW 39 0 0 Left 0
SYMATTR InstName V3
SYMATTR Value SINE(0 5 2)
TEXT -304 408 Left 2 !.tran 10
