Version 4.1
SHEET 1 880 680
WIRE 240 -64 -208 -64
WIRE -208 32 -208 -64
WIRE 240 96 240 -64
WIRE -208 128 -208 112
WIRE -208 128 -320 128
WIRE 176 128 -32 128
WIRE -32 144 -32 128
WIRE -208 160 -208 128
WIRE 336 160 288 160
WIRE -320 176 -320 128
WIRE 16 192 -32 192
WIRE 128 192 96 192
WIRE 176 192 128 192
WIRE -32 240 -32 192
WIRE 128 304 128 192
WIRE 176 304 128 304
WIRE 336 304 336 160
WIRE 336 304 256 304
WIRE -32 352 -32 320
WIRE -208 400 -208 240
WIRE 240 400 240 224
WIRE 240 400 -208 400
FLAG -320 176 0
FLAG -32 352 0
FLAG -32 144 0
SYMBOL LM\ 741\\LM741 224 176 R0
WINDOW 3 221 -30 Top 2
SYMATTR InstName U1
SYMBOL voltage -208 16 R0
WINDOW 123 0 0 Left 0
WINDOW 39 0 0 Left 0
SYMATTR InstName V1
SYMATTR Value 10V
SYMBOL voltage -208 144 R0
WINDOW 123 0 0 Left 0
WINDOW 39 0 0 Left 0
SYMATTR InstName V2
SYMATTR Value 10V
SYMBOL res 272 288 R90
WINDOW 0 0 56 VBottom 2
WINDOW 3 32 56 VTop 2
SYMATTR InstName R1
SYMATTR Value 1k
SYMBOL res 112 176 R90
WINDOW 0 0 56 VBottom 2
WINDOW 3 32 56 VTop 2
SYMATTR InstName R2
SYMATTR Value 2k
SYMBOL voltage -32 224 R0
WINDOW 123 0 0 Left 0
WINDOW 39 0 0 Left 0
SYMATTR InstName V3
SYMATTR Value SINE(0 5 2)
TEXT -336 408 Left 2 !.tran 10
