Version 4.1
SHEET 1 880 680
WIRE 224 -48 -192 -48
WIRE -192 16 -192 -48
WIRE 224 96 224 -48
WIRE -192 128 -192 96
WIRE -192 128 -272 128
WIRE 160 128 32 128
WIRE 32 144 32 128
WIRE -192 160 -192 128
WIRE 336 160 272 160
WIRE -272 176 -272 128
WIRE 160 192 128 192
WIRE 32 256 32 224
WIRE 128 256 128 192
WIRE 336 256 336 160
WIRE 336 256 128 256
WIRE -192 368 -192 240
WIRE 224 368 224 224
WIRE 224 368 -192 368
FLAG 32 256 0
FLAG -272 176 0
SYMBOL LM\ 741\\LM741 208 176 R0
SYMATTR InstName U1
SYMBOL voltage 32 128 R0
WINDOW 123 0 0 Left 0
WINDOW 39 0 0 Left 0
SYMATTR InstName V1
SYMATTR Value SINE(0 5 2)
SYMBOL voltage -192 0 R0
WINDOW 123 0 0 Left 0
WINDOW 39 0 0 Left 0
SYMATTR InstName V2
SYMATTR Value 15
SYMBOL voltage -192 144 R0
WINDOW 123 0 0 Left 0
WINDOW 39 0 0 Left 0
SYMATTR InstName V3
SYMATTR Value 15
TEXT -288 376 Left 2 !.tran 10
