Version 4.1
SHEET 1 984 688
WIRE -448 -368 -848 -368
WIRE -608 -288 -736 -288
WIRE -448 -256 -448 -368
WIRE -384 -256 -448 -256
WIRE -848 -240 -848 -368
WIRE -736 -240 -736 -288
WIRE -160 -224 -272 -224
WIRE 80 -224 -160 -224
WIRE -384 -192 -496 -192
WIRE -160 -128 -160 -224
WIRE 400 -96 304 -96
WIRE 608 -96 480 -96
WIRE -496 0 -496 -192
WIRE -160 0 -160 -48
WIRE -160 0 -496 0
WIRE 80 32 80 -224
WIRE 128 32 80 32
WIRE 304 32 304 -96
WIRE 304 32 208 32
WIRE -160 64 -160 0
WIRE 304 80 304 32
WIRE 400 80 304 80
WIRE 608 112 608 -96
WIRE 608 112 512 112
WIRE 400 144 304 144
WIRE 128 192 80 192
WIRE 304 192 304 144
WIRE 304 192 208 192
WIRE -160 208 -160 144
WIRE -160 208 -496 208
WIRE -160 272 -160 208
WIRE 304 304 304 192
WIRE 320 304 304 304
WIRE -496 512 -496 208
WIRE -400 512 -496 512
WIRE -160 544 -160 352
WIRE -160 544 -288 544
WIRE 80 544 80 192
WIRE 80 544 -160 544
WIRE 320 544 320 384
WIRE -608 576 -608 -288
WIRE -400 576 -608 576
FLAG 320 544 0
FLAG 800 -192 0
FLAG 912 -192 0
FLAG 800 -272 -VS
FLAG 464 48 -VS
FLAG -320 -160 -VS
FLAG -336 480 -VS
FLAG 912 -272 +VS
FLAG 464 176 +VS
FLAG -336 608 +VS
FLAG -320 -288 +VS
FLAG -736 -160 0
FLAG -848 -160 0
SYMBOL LM\ 741\\LM741 448 96 M180
SYMATTR InstName U1
SYMBOL LM\ 741\\LM741 -336 -208 R0
SYMATTR InstName U2
SYMBOL LM\ 741\\LM741 -352 528 M180
SYMATTR InstName U3
SYMBOL res -176 -144 R0
SYMATTR InstName R1
SYMATTR Value 2k
SYMBOL res -176 48 R0
SYMATTR InstName R2
SYMATTR Value 0.5k
SYMBOL res -176 256 R0
SYMATTR InstName R3
SYMATTR Value 2k
SYMBOL res 224 16 R90
WINDOW 0 0 56 VBottom 2
WINDOW 3 32 56 VTop 2
SYMATTR InstName R4
SYMATTR Value 2k
SYMBOL res 224 176 R90
WINDOW 0 0 56 VBottom 2
WINDOW 3 32 56 VTop 2
SYMATTR InstName R5
SYMATTR Value 2k
SYMBOL res 304 288 R0
SYMATTR InstName R6
SYMATTR Value 2k
SYMBOL res 496 -112 R90
WINDOW 0 0 56 VBottom 2
WINDOW 3 32 56 VTop 2
SYMATTR InstName R7
SYMATTR Value 2k
SYMBOL voltage 800 -288 R0
WINDOW 123 0 0 Left 0
WINDOW 39 0 0 Left 0
SYMATTR InstName -Vs
SYMATTR Value -15
SYMBOL voltage 912 -288 R0
WINDOW 123 0 0 Left 0
WINDOW 39 0 0 Left 0
SYMATTR InstName +Vs
SYMATTR Value 15
SYMBOL voltage -848 -256 R0
WINDOW 123 0 0 Left 0
WINDOW 39 0 0 Left 0
SYMATTR InstName V1
SYMATTR Value 25m
SYMBOL voltage -736 -256 R0
WINDOW 123 0 0 Left 0
WINDOW 39 0 0 Left 0
SYMATTR InstName V2
SYMATTR Value 50m
TEXT -880 672 Left 2 !.tran 10
