Version 4.1
SHEET 1 880 680
WIRE 352 -128 224 -128
WIRE 224 -112 224 -128
WIRE 352 -112 352 -128
WIRE 224 0 224 -32
WIRE 224 112 224 80
WIRE 384 112 224 112
WIRE 496 112 448 112
WIRE 224 144 224 112
WIRE -128 208 -256 208
WIRE 32 208 -64 208
WIRE 176 208 32 208
WIRE 496 240 496 112
WIRE -256 288 -256 208
WIRE 32 288 32 208
WIRE 224 288 224 240
WIRE -256 432 -256 368
WIRE 32 432 32 368
WIRE 32 432 -256 432
WIRE 224 432 224 368
WIRE 224 432 32 432
WIRE 496 432 496 320
WIRE 496 432 224 432
FLAG 224 432 0
FLAG 352 -112 0
SYMBOL njf 176 144 R0
SYMATTR InstName J1
SYMATTR Value J309
SYMBOL res 208 -16 R0
SYMATTR InstName R1
SYMATTR Value 2.2k
SYMBOL res 208 272 R0
SYMATTR InstName R2
SYMATTR Value 680
SYMBOL res 16 272 R0
SYMATTR InstName R3
SYMATTR Value 10Meg
SYMBOL cap -64 192 R90
WINDOW 0 0 32 VBottom 2
WINDOW 3 32 32 VTop 2
SYMATTR InstName C1
SYMATTR Value 2.2µ
SYMBOL cap 384 128 R270
WINDOW 0 32 32 VTop 2
WINDOW 3 0 32 VBottom 2
SYMATTR InstName C2
SYMATTR Value 2.2µ
SYMBOL voltage 224 -16 R180
WINDOW 0 24 96 Left 2
WINDOW 3 24 16 Left 2
WINDOW 123 0 0 Left 0
WINDOW 39 0 0 Left 0
SYMATTR InstName V1
SYMATTR Value 9
SYMBOL voltage -256 272 R0
WINDOW 123 0 0 Left 0
WINDOW 39 0 0 Left 0
SYMATTR InstName V2
SYMATTR Value SINE(0 10m 100k)
SYMBOL res 480 224 R0
SYMATTR InstName R4
SYMATTR Value 100k
TEXT -288 456 Left 2 !.tran 0.1m
